LTspice 24.1.3 for Windows
Circuit: C:\Users\austi\Documents\LTspiceXVII\ee493_demos\cs_amplifier.net
Start Time: Sun Feb 23 20:03:33 2025
solver = Normal
Maximum thread count: 8
tnom = 27
temp = 27
method = modified trap
WARNING: Node n003 is floating.

.step 
Total elapsed time: 0.248 seconds.

Files loaded:
C:\Users\austi\Documents\LTspiceXVII\ee493_demos\cs_amplifier.net
C:\Users\austi\Documents\LTspiceXVII\lib\sub\ee551.lib

