LTspice 24.1.3 for Windows
Circuit: C:\Users\austi\Documents\EE-493\EE493 Project 5\Draft1.net
Start Time: Tue Feb 25 19:45:49 2025
solver = Normal
Maximum thread count: 8
tnom = 27
temp = 27
method = modified trap
.step 
Total elapsed time: 0.171 seconds.

Files loaded:
C:\Users\austi\Documents\EE-493\EE493 Project 5\Draft1.net
C:\Users\austi\Documents\LTspiceXVII\lib\sub\ee551.lib

