LTspice 24.1.3 for Windows
Circuit: C:\Users\austi\Documents\EE-493\EE493 Project 5\ee493_project5_part2.net
Start Time: Tue Feb 25 19:48:59 2025
solver = Normal
Maximum thread count: 8
tnom = 27
temp = 27
method = modified trap
.step 
Total elapsed time: 0.164 seconds.

Files loaded:
C:\Users\austi\Documents\EE-493\EE493 Project 5\ee493_project5_part2.net
C:\Users\austi\Documents\LTspiceXVII\lib\sub\ee551.lib

