LTspice 24.1.3 for Windows
Circuit: C:\Users\austi\Documents\LTspiceXVII\ee493_example2\csamp.net
Start Time: Mon Feb 17 13:03:15 2025
solver = Normal
Maximum thread count: 8
tnom = 27
temp = 27
method = modified trap
.step 
Total elapsed time: 0.209 seconds.

Files loaded:
C:\Users\austi\Documents\LTspiceXVII\ee493_example2\csamp.net
C:\Users\austi\Documents\LTspiceXVII\lib\sub\ee551.lib

